[General]
#debug-on-errors = true
#record-eventlog = true
#eventlog-message-detail-pattern = Packet:declaredOn(Packet) or bitLength
#eventlog-message-detail-pattern = *
sim-time-limit = 10000s
#sim-time-limit = 100h

**.vector-recording = false

**.appType = "CallApp"

#**.app[0].callReserve = 50Mbps
#**.app[0].usedBandwith = 5Mbps  
**.app[0].usedBandwith = 30Mbps


**.callReserve = 0
**.actualizeWithSignals = true 

**.independentFlows = false
#**.flowArrival  = exponential(1s)
#**.flowDuration = exponential(1s)
**.flowUsedBandwith = 600kbps
**.numSources = 1

**.flowClass = "Discard" # Finite queue doesn't in this moment 
**.minimumTimeActualize = 300s

output-scalar-file = ${resultdir}/${configname}-1MbB-${runnumber}.sca

**.app[*].callArrival = exponential(5s) 
**.app[*].callDuration = exponential(120s)
**.app[*].TimeOn =  exponential(5s)
**.app[*].TimeOff = exponential(1s)


[Config Net60MinHopRef]
repeat = 10
network = networks.Net60
**.RoutingType = "HopByHop"
**.app[0].destAddresses = "0 1 2 3 4 5 6 7 8 9 10 11 12 13 14 15 16 17 18 19 20 21 22 23 24 25 26 27 28 29 30 31 32 33 34 35 36 37 38 39 40 41 42 43 44 45 46 47 48 49 50 51 52 53 54 55 56"

[Config Net60SroutingkNoFuzzyRef]
repeat = 10
network = networks.Net60
**.RoutingType = "SourceRouting"
**.app[0].destAddresses = "0 1 2 3 4 5 6 7 8 9 10 11 12 13 14 15 16 17 18 19 20 21 22 23 24 25 26 27 28 29 30 31 32 33 34 35 36 37 38 39 40 41 42 43 44 45 46 47 48 49 50 51 52 53 54 55 56"

[Config Net60SroutingkNoFuzzyHyperRef]
repeat = 10
**.useHyperbolic = true
network = networks.Net60
**.RoutingType = "SourceRouting"
**.app[0].destAddresses = "0 1 2 3 4 5 6 7 8 9 10 11 12 13 14 15 16 17 18 19 20 21 22 23 24 25 26 27 28 29 30 31 32 33 34 35 36 37 38 39 40 41 42 43 44 45 46 47 48 49 50 51 52 53 54 55 56"


[Config Net60SroutingkNoFuzzyRefInst]
repeat = 10
**.instValue = true
network = networks.Net60
**.RoutingType = "SourceRouting"
**.app[0].destAddresses = "0 1 2 3 4 5 6 7 8 9 10 11 12 13 14 15 16 17 18 19 20 21 22 23 24 25 26 27 28 29 30 31 32 33 34 35 36 37 38 39 40 41 42 43 44 45 46 47 48 49 50 51 52 53 54 55 56"

[Config Net60SroutingSwRefInst]
repeat = 10
**.instValue = true
network = networks.Net60
**.RoutingType = "Sw"
**.app[0].destAddresses = "0 1 2 3 4 5 6 7 8 9 10 11 12 13 14 15 16 17 18 19 20 21 22 23 24 25 26 27 28 29 30 31 32 33 34 35 36 37 38 39 40 41 42 43 44 45 46 47 48 49 50 51 52 53 54 55 56"

[Config Net60SroutingSwRef_b]
repeat = 10
**.instValue = false
network = networks.Net60
**.RoutingType = "Sw"
**.app[0].destAddresses = "0 1 2 3 4 5 6 7 8 9 10 11 12 13 14 15 16 17 18 19 20 21 22 23 24 25 26 27 28 29 30 31 32 33 34 35 36 37 38 39 40 41 42 43 44 45 46 47 48 49 50 51 52 53 54 55 56"

[Config Net60SroutingWsRefInst]
repeat = 10
**.instValue = true
network = networks.Net60
**.RoutingType = "Ws"
**.app[0].destAddresses = "0 1 2 3 4 5 6 7 8 9 10 11 12 13 14 15 16 17 18 19 20 21 22 23 24 25 26 27 28 29 30 31 32 33 34 35 36 37 38 39 40 41 42 43 44 45 46 47 48 49 50 51 52 53 54 55 56"

[Config Net60SroutingWsRef_b]
repeat = 10
**.instValue = false
network = networks.Net60
**.RoutingType = "Ws"
**.app[0].destAddresses = "0 1 2 3 4 5 6 7 8 9 10 11 12 13 14 15 16 17 18 19 20 21 22 23 24 25 26 27 28 29 30 31 32 33 34 35 36 37 38 39 40 41 42 43 44 45 46 47 48 49 50 51 52 53 54 55 56"

[Config Net60SroutingWsFuzzyRef]
repeat = 10
**.instValue = false
network = networks.Net60
**.RoutingType = "WsFuzzy"
**.app[0].destAddresses = "0 1 2 3 4 5 6 7 8 9 10 11 12 13 14 15 16 17 18 19 20 21 22 23 24 25 26 27 28 29 30 31 32 33 34 35 36 37 38 39 40 41 42 43 44 45 46 47 48 49 50 51 52 53 54 55 56"

[Config Net60SroutingSwFuzztRef]
repeat = 10
**.instValue = false
network = networks.Net60
**.RoutingType = "SwFuzzy"
**.app[0].destAddresses = "0 1 2 3 4 5 6 7 8 9 10 11 12 13 14 15 16 17 18 19 20 21 22 23 24 25 26 27 28 29 30 31 32 33 34 35 36 37 38 39 40 41 42 43 44 45 46 47 48 49 50 51 52 53 54 55 56"


[Config Net60SroutingRefHyper]
repeat = 10
**.useHyperbolic = true
network = networks.Net60
**.RoutingType = "SourceRoutingFuzzy"
**.app[0].destAddresses = "0 1 2 3 4 5 6 7 8 9 10 11 12 13 14 15 16 17 18 19 20 21 22 23 24 25 26 27 28 29 30 31 32 33 34 35 36 37 38 39 40 41 42 43 44 45 46 47 48 49 50 51 52 53 54 55 56"

[Config Net60SroutingRef]
repeat = 10
network = networks.Net60
**.RoutingType = "SourceRoutingFuzzy"
**.app[0].destAddresses = "0 1 2 3 4 5 6 7 8 9 10 11 12 13 14 15 16 17 18 19 20 21 22 23 24 25 26 27 28 29 30 31 32 33 34 35 36 37 38 39 40 41 42 43 44 45 46 47 48 49 50 51 52 53 54 55 56"

[Config Net60SroutingFuzzyCorregidoRef]
repeat = 10
network = networks.Net60
**.RoutingType = "SourceRoutingFuzzy"
**.app[0].destAddresses = "0 1 2 3 4 5 6 7 8 9 10 11 12 13 14 15 16 17 18 19 20 21 22 23 24 25 26 27 28 29 30 31 32 33 34 35 36 37 38 39 40 41 42 43 44 45 46 47 48 49 50 51 52 53 54 55 56"
**.fuzzyCorregido = true

[Config Net60SroutingkFuzzyHyperTrafic]
repeat = 10
**.useHyperbolic = true
network = networks.Net60
**.RoutingType = "SourceRoutingFuzzy"
**.app[0].destAddresses = "0 1 2 3 4 5 6 7 8 9 10 11 12 13 14 15 16 17 18 19 20 21 22 23 24 25 26 27 28 29 30 31 32 33 34 35 36 37 38 39 40 41 42 43 44 45 46 47 48 49 50 51 52 53 54 55 56"
